[root]
type=Root
children=system
eventq_index=0
full_system=false
sim_quantum=0
time_sync_enable=false
time_sync_period=100000000000
time_sync_spin_threshold=100000000

[system]
type=System
children=clk_domain cpu dvfs_handler mem_ctrl membus workload
auto_unlink_shared_backstore=false
cache_line_size=64
eventq_index=0
exit_on_work_items=false
init_param=0
m5ops_base=0
mem_mode=timing
mem_ranges=0:2147483648
memories=system.mem_ctrl.dram
mmap_using_noreserve=false
multi_thread=false
num_work_ids=16
readfile=
redirect_paths=
shadow_rom_ranges=
shared_backstore=
symbolfile=
thermal_components=
thermal_model=Null
work_begin_ckpt_count=0
work_begin_cpu_id_exit=-1
work_begin_exit_count=0
work_cpus_ckpt_count=0
work_end_ckpt_count=0
work_end_exit_count=0
work_item_id=-1
workload=system.workload
system_port=system.membus.cpu_side_ports[2]

[system.clk_domain]
type=SrcClockDomain
children=voltage_domain
clock=500
domain_id=-1
eventq_index=0
init_perf_level=0
voltage_domain=system.clk_domain.voltage_domain

[system.clk_domain.voltage_domain]
type=VoltageDomain
eventq_index=0
voltage=1.0

[system.cpu]
type=BaseMinorCPU
children=branchPred decoder executeFuncUnits interrupts isa mmu power_state tracer workload
branchPred=system.cpu.branchPred
checker=Null
clk_domain=system.clk_domain
cpu_id=-1
decodeCycleInput=true
decodeInputBufferSize=3
decodeInputWidth=2
decodeToExecuteForwardDelay=1
decoder=system.cpu.decoder
do_checkpoint_insts=true
do_statistics_insts=true
enableIdling=true
eventq_index=0
executeAllowEarlyMemoryIssue=true
executeBranchDelay=1
executeCommitLimit=2
executeCycleInput=true
executeFuncUnits=system.cpu.executeFuncUnits
executeInputBufferSize=7
executeInputWidth=2
executeIssueLimit=2
executeLSQMaxStoreBufferStoresPerCycle=2
executeLSQRequestsQueueSize=1
executeLSQStoreBufferSize=5
executeLSQTransfersQueueSize=2
executeMaxAccessesInMemory=2
executeMemoryCommitLimit=1
executeMemoryIssueLimit=1
executeMemoryWidth=0
executeSetTraceTimeOnCommit=true
executeSetTraceTimeOnIssue=false
fetch1FetchLimit=1
fetch1LineSnapWidth=0
fetch1LineWidth=0
fetch1ToFetch2BackwardDelay=1
fetch1ToFetch2ForwardDelay=1
fetch2CycleInput=true
fetch2InputBufferSize=2
fetch2ToDecodeForwardDelay=1
function_trace=false
function_trace_start=0
interrupts=system.cpu.interrupts
isa=system.cpu.isa
max_insts_all_threads=0
max_insts_any_thread=500000000
mmu=system.cpu.mmu
numThreads=1
power_gating_on_idle=false
power_model=
power_state=system.cpu.power_state
progress_interval=0
pwr_gating_latency=300
simpoint_start_insts=
socket_id=0
switched_out=false
syscallRetryLatency=10000
system=system
threadPolicy=RoundRobin
tracer=system.cpu.tracer
workload=system.cpu.workload
dcache_port=system.membus.cpu_side_ports[1]
icache_port=system.membus.cpu_side_ports[0]

[system.cpu.branchPred]
type=TournamentBP
children=btb indirectBranchPred ras
btb=system.cpu.branchPred.btb
choiceCtrBits=2
choicePredictorSize=8192
eventq_index=0
globalCtrBits=2
globalPredictorSize=8192
indirectBranchPred=system.cpu.branchPred.indirectBranchPred
instShiftAmt=2
localCtrBits=2
localHistoryTableSize=2048
localPredictorSize=2048
numThreads=1
ras=system.cpu.branchPred.ras
requiresBTBHit=false

[system.cpu.branchPred.btb]
type=SimpleBTB
children=power_state
clk_domain=system.clk_domain
eventq_index=0
instShiftAmt=2
numEntries=4096
numThreads=1
power_model=
power_state=system.cpu.branchPred.btb.power_state
tagBits=16

[system.cpu.branchPred.btb.power_state]
type=PowerState
clk_gate_bins=20
clk_gate_max=1000000000000
clk_gate_min=1000
default_state=UNDEFINED
eventq_index=0
leaders=
possible_states=

[system.cpu.branchPred.indirectBranchPred]
type=SimpleIndirectPredictor
eventq_index=0
indirectGHRBits=13
indirectHashGHR=true
indirectHashTargets=true
indirectPathLength=3
indirectSets=256
indirectTagSize=16
indirectWays=2
instShiftAmt=2
numThreads=1
speculativePathLength=256

[system.cpu.branchPred.ras]
type=ReturnAddrStack
eventq_index=0
numEntries=16
numThreads=1

[system.cpu.decoder]
type=ArmDecoder
dvm_enabled=false
eventq_index=0
isa=system.cpu.isa

[system.cpu.executeFuncUnits]
type=MinorFUPool
children=funcUnits0 funcUnits1 funcUnits2 funcUnits3 funcUnits4 funcUnits5 funcUnits6 funcUnits7
eventq_index=0
funcUnits=system.cpu.executeFuncUnits.funcUnits0 system.cpu.executeFuncUnits.funcUnits1 system.cpu.executeFuncUnits.funcUnits2 system.cpu.executeFuncUnits.funcUnits3 system.cpu.executeFuncUnits.funcUnits4 system.cpu.executeFuncUnits.funcUnits5 system.cpu.executeFuncUnits.funcUnits6 system.cpu.executeFuncUnits.funcUnits7

[system.cpu.executeFuncUnits.funcUnits0]
type=MinorFU
children=opClasses timings
cantForwardFromFUIndices=
eventq_index=0
issueLat=1
opClasses=system.cpu.executeFuncUnits.funcUnits0.opClasses
opLat=3
timings=system.cpu.executeFuncUnits.funcUnits0.timings

[system.cpu.executeFuncUnits.funcUnits0.opClasses]
type=MinorOpClassSet
children=opClasses
eventq_index=0
opClasses=system.cpu.executeFuncUnits.funcUnits0.opClasses.opClasses

[system.cpu.executeFuncUnits.funcUnits0.opClasses.opClasses]
type=MinorOpClass
eventq_index=0
opClass=IntAlu

[system.cpu.executeFuncUnits.funcUnits0.timings]
type=MinorFUTiming
children=opClasses
description=Int
eventq_index=0
extraAssumedLat=0
extraCommitLat=0
extraCommitLatExpr=Null
mask=0
match=0
opClasses=system.cpu.executeFuncUnits.funcUnits0.timings.opClasses
srcRegsRelativeLats=2
suppress=false

[system.cpu.executeFuncUnits.funcUnits0.timings.opClasses]
type=MinorOpClassSet
eventq_index=0
opClasses=

[system.cpu.executeFuncUnits.funcUnits1]
type=MinorFU
children=opClasses timings
cantForwardFromFUIndices=
eventq_index=0
issueLat=1
opClasses=system.cpu.executeFuncUnits.funcUnits1.opClasses
opLat=3
timings=system.cpu.executeFuncUnits.funcUnits1.timings

[system.cpu.executeFuncUnits.funcUnits1.opClasses]
type=MinorOpClassSet
children=opClasses
eventq_index=0
opClasses=system.cpu.executeFuncUnits.funcUnits1.opClasses.opClasses

[system.cpu.executeFuncUnits.funcUnits1.opClasses.opClasses]
type=MinorOpClass
eventq_index=0
opClass=IntAlu

[system.cpu.executeFuncUnits.funcUnits1.timings]
type=MinorFUTiming
children=opClasses
description=Int
eventq_index=0
extraAssumedLat=0
extraCommitLat=0
extraCommitLatExpr=Null
mask=0
match=0
opClasses=system.cpu.executeFuncUnits.funcUnits1.timings.opClasses
srcRegsRelativeLats=2
suppress=false

[system.cpu.executeFuncUnits.funcUnits1.timings.opClasses]
type=MinorOpClassSet
eventq_index=0
opClasses=

[system.cpu.executeFuncUnits.funcUnits2]
type=MinorFU
children=opClasses timings
cantForwardFromFUIndices=
eventq_index=0
issueLat=1
opClasses=system.cpu.executeFuncUnits.funcUnits2.opClasses
opLat=3
timings=system.cpu.executeFuncUnits.funcUnits2.timings

[system.cpu.executeFuncUnits.funcUnits2.opClasses]
type=MinorOpClassSet
children=opClasses
eventq_index=0
opClasses=system.cpu.executeFuncUnits.funcUnits2.opClasses.opClasses

[system.cpu.executeFuncUnits.funcUnits2.opClasses.opClasses]
type=MinorOpClass
eventq_index=0
opClass=IntMult

[system.cpu.executeFuncUnits.funcUnits2.timings]
type=MinorFUTiming
children=opClasses
description=Mul
eventq_index=0
extraAssumedLat=0
extraCommitLat=0
extraCommitLatExpr=Null
mask=0
match=0
opClasses=system.cpu.executeFuncUnits.funcUnits2.timings.opClasses
srcRegsRelativeLats=0
suppress=false

[system.cpu.executeFuncUnits.funcUnits2.timings.opClasses]
type=MinorOpClassSet
eventq_index=0
opClasses=

[system.cpu.executeFuncUnits.funcUnits3]
type=MinorFU
children=opClasses
cantForwardFromFUIndices=
eventq_index=0
issueLat=9
opClasses=system.cpu.executeFuncUnits.funcUnits3.opClasses
opLat=9
timings=

[system.cpu.executeFuncUnits.funcUnits3.opClasses]
type=MinorOpClassSet
children=opClasses
eventq_index=0
opClasses=system.cpu.executeFuncUnits.funcUnits3.opClasses.opClasses

[system.cpu.executeFuncUnits.funcUnits3.opClasses.opClasses]
type=MinorOpClass
eventq_index=0
opClass=IntDiv

[system.cpu.executeFuncUnits.funcUnits4]
type=MinorFU
children=opClasses timings
cantForwardFromFUIndices=
eventq_index=0
issueLat=1
opClasses=system.cpu.executeFuncUnits.funcUnits4.opClasses
opLat=6
timings=system.cpu.executeFuncUnits.funcUnits4.timings

[system.cpu.executeFuncUnits.funcUnits4.opClasses]
type=MinorOpClassSet
children=opClasses00 opClasses01 opClasses02 opClasses03 opClasses04 opClasses05 opClasses06 opClasses07 opClasses08 opClasses09 opClasses10 opClasses11 opClasses12 opClasses13 opClasses14 opClasses15 opClasses16 opClasses17 opClasses18 opClasses19 opClasses20 opClasses21 opClasses22 opClasses23 opClasses24 opClasses25 opClasses26 opClasses27 opClasses28 opClasses29 opClasses30 opClasses31 opClasses32 opClasses33 opClasses34 opClasses35 opClasses36 opClasses37 opClasses38 opClasses39 opClasses40 opClasses41 opClasses42 opClasses43 opClasses44 opClasses45 opClasses46 opClasses47 opClasses48 opClasses49 opClasses50
eventq_index=0
opClasses=system.cpu.executeFuncUnits.funcUnits4.opClasses.opClasses00 system.cpu.executeFuncUnits.funcUnits4.opClasses.opClasses01 system.cpu.executeFuncUnits.funcUnits4.opClasses.opClasses02 system.cpu.executeFuncUnits.funcUnits4.opClasses.opClasses03 system.cpu.executeFuncUnits.funcUnits4.opClasses.opClasses04 system.cpu.executeFuncUnits.funcUnits4.opClasses.opClasses05 system.cpu.executeFuncUnits.funcUnits4.opClasses.opClasses06 system.cpu.executeFuncUnits.funcUnits4.opClasses.opClasses07 system.cpu.executeFuncUnits.funcUnits4.opClasses.opClasses08 system.cpu.executeFuncUnits.funcUnits4.opClasses.opClasses09 system.cpu.executeFuncUnits.funcUnits4.opClasses.opClasses10 system.cpu.executeFuncUnits.funcUnits4.opClasses.opClasses11 system.cpu.executeFuncUnits.funcUnits4.opClasses.opClasses12 system.cpu.executeFuncUnits.funcUnits4.opClasses.opClasses13 system.cpu.executeFuncUnits.funcUnits4.opClasses.opClasses14 system.cpu.executeFuncUnits.funcUnits4.opClasses.opClasses15 system.cpu.executeFuncUnits.funcUnits4.opClasses.opClasses16 system.cpu.executeFuncUnits.funcUnits4.opClasses.opClasses17 system.cpu.executeFuncUnits.funcUnits4.opClasses.opClasses18 system.cpu.executeFuncUnits.funcUnits4.opClasses.opClasses19 system.cpu.executeFuncUnits.funcUnits4.opClasses.opClasses20 system.cpu.executeFuncUnits.funcUnits4.opClasses.opClasses21 system.cpu.executeFuncUnits.funcUnits4.opClasses.opClasses22 system.cpu.executeFuncUnits.funcUnits4.opClasses.opClasses23 system.cpu.executeFuncUnits.funcUnits4.opClasses.opClasses24 system.cpu.executeFuncUnits.funcUnits4.opClasses.opClasses25 system.cpu.executeFuncUnits.funcUnits4.opClasses.opClasses26 system.cpu.executeFuncUnits.funcUnits4.opClasses.opClasses27 system.cpu.executeFuncUnits.funcUnits4.opClasses.opClasses28 system.cpu.executeFuncUnits.funcUnits4.opClasses.opClasses29 system.cpu.executeFuncUnits.funcUnits4.opClasses.opClasses30 system.cpu.executeFuncUnits.funcUnits4.opClasses.opClasses31 system.cpu.executeFuncUnits.funcUnits4.opClasses.opClasses32 system.cpu.executeFuncUnits.funcUnits4.opClasses.opClasses33 system.cpu.executeFuncUnits.funcUnits4.opClasses.opClasses34 system.cpu.executeFuncUnits.funcUnits4.opClasses.opClasses35 system.cpu.executeFuncUnits.funcUnits4.opClasses.opClasses36 system.cpu.executeFuncUnits.funcUnits4.opClasses.opClasses37 system.cpu.executeFuncUnits.funcUnits4.opClasses.opClasses38 system.cpu.executeFuncUnits.funcUnits4.opClasses.opClasses39 system.cpu.executeFuncUnits.funcUnits4.opClasses.opClasses40 system.cpu.executeFuncUnits.funcUnits4.opClasses.opClasses41 system.cpu.executeFuncUnits.funcUnits4.opClasses.opClasses42 system.cpu.executeFuncUnits.funcUnits4.opClasses.opClasses43 system.cpu.executeFuncUnits.funcUnits4.opClasses.opClasses44 system.cpu.executeFuncUnits.funcUnits4.opClasses.opClasses45 system.cpu.executeFuncUnits.funcUnits4.opClasses.opClasses46 system.cpu.executeFuncUnits.funcUnits4.opClasses.opClasses47 system.cpu.executeFuncUnits.funcUnits4.opClasses.opClasses48 system.cpu.executeFuncUnits.funcUnits4.opClasses.opClasses49 system.cpu.executeFuncUnits.funcUnits4.opClasses.opClasses50

[system.cpu.executeFuncUnits.funcUnits4.opClasses.opClasses00]
type=MinorOpClass
eventq_index=0
opClass=FloatAdd

[system.cpu.executeFuncUnits.funcUnits4.opClasses.opClasses01]
type=MinorOpClass
eventq_index=0
opClass=FloatCmp

[system.cpu.executeFuncUnits.funcUnits4.opClasses.opClasses02]
type=MinorOpClass
eventq_index=0
opClass=FloatCvt

[system.cpu.executeFuncUnits.funcUnits4.opClasses.opClasses03]
type=MinorOpClass
eventq_index=0
opClass=FloatMisc

[system.cpu.executeFuncUnits.funcUnits4.opClasses.opClasses04]
type=MinorOpClass
eventq_index=0
opClass=FloatMult

[system.cpu.executeFuncUnits.funcUnits4.opClasses.opClasses05]
type=MinorOpClass
eventq_index=0
opClass=FloatMultAcc

[system.cpu.executeFuncUnits.funcUnits4.opClasses.opClasses06]
type=MinorOpClass
eventq_index=0
opClass=FloatDiv

[system.cpu.executeFuncUnits.funcUnits4.opClasses.opClasses07]
type=MinorOpClass
eventq_index=0
opClass=FloatSqrt

[system.cpu.executeFuncUnits.funcUnits4.opClasses.opClasses08]
type=MinorOpClass
eventq_index=0
opClass=SimdAdd

[system.cpu.executeFuncUnits.funcUnits4.opClasses.opClasses09]
type=MinorOpClass
eventq_index=0
opClass=SimdAddAcc

[system.cpu.executeFuncUnits.funcUnits4.opClasses.opClasses10]
type=MinorOpClass
eventq_index=0
opClass=SimdAlu

[system.cpu.executeFuncUnits.funcUnits4.opClasses.opClasses11]
type=MinorOpClass
eventq_index=0
opClass=SimdCmp

[system.cpu.executeFuncUnits.funcUnits4.opClasses.opClasses12]
type=MinorOpClass
eventq_index=0
opClass=SimdCvt

[system.cpu.executeFuncUnits.funcUnits4.opClasses.opClasses13]
type=MinorOpClass
eventq_index=0
opClass=SimdMisc

[system.cpu.executeFuncUnits.funcUnits4.opClasses.opClasses14]
type=MinorOpClass
eventq_index=0
opClass=SimdMult

[system.cpu.executeFuncUnits.funcUnits4.opClasses.opClasses15]
type=MinorOpClass
eventq_index=0
opClass=SimdMultAcc

[system.cpu.executeFuncUnits.funcUnits4.opClasses.opClasses16]
type=MinorOpClass
eventq_index=0
opClass=SimdMatMultAcc

[system.cpu.executeFuncUnits.funcUnits4.opClasses.opClasses17]
type=MinorOpClass
eventq_index=0
opClass=SimdShift

[system.cpu.executeFuncUnits.funcUnits4.opClasses.opClasses18]
type=MinorOpClass
eventq_index=0
opClass=SimdShiftAcc

[system.cpu.executeFuncUnits.funcUnits4.opClasses.opClasses19]
type=MinorOpClass
eventq_index=0
opClass=SimdDiv

[system.cpu.executeFuncUnits.funcUnits4.opClasses.opClasses20]
type=MinorOpClass
eventq_index=0
opClass=SimdSqrt

[system.cpu.executeFuncUnits.funcUnits4.opClasses.opClasses21]
type=MinorOpClass
eventq_index=0
opClass=SimdFloatAdd

[system.cpu.executeFuncUnits.funcUnits4.opClasses.opClasses22]
type=MinorOpClass
eventq_index=0
opClass=SimdFloatAlu

[system.cpu.executeFuncUnits.funcUnits4.opClasses.opClasses23]
type=MinorOpClass
eventq_index=0
opClass=SimdFloatCmp

[system.cpu.executeFuncUnits.funcUnits4.opClasses.opClasses24]
type=MinorOpClass
eventq_index=0
opClass=SimdFloatCvt

[system.cpu.executeFuncUnits.funcUnits4.opClasses.opClasses25]
type=MinorOpClass
eventq_index=0
opClass=SimdFloatDiv

[system.cpu.executeFuncUnits.funcUnits4.opClasses.opClasses26]
type=MinorOpClass
eventq_index=0
opClass=SimdFloatMisc

[system.cpu.executeFuncUnits.funcUnits4.opClasses.opClasses27]
type=MinorOpClass
eventq_index=0
opClass=SimdFloatMult

[system.cpu.executeFuncUnits.funcUnits4.opClasses.opClasses28]
type=MinorOpClass
eventq_index=0
opClass=SimdFloatMultAcc

[system.cpu.executeFuncUnits.funcUnits4.opClasses.opClasses29]
type=MinorOpClass
eventq_index=0
opClass=SimdFloatMatMultAcc

[system.cpu.executeFuncUnits.funcUnits4.opClasses.opClasses30]
type=MinorOpClass
eventq_index=0
opClass=SimdFloatSqrt

[system.cpu.executeFuncUnits.funcUnits4.opClasses.opClasses31]
type=MinorOpClass
eventq_index=0
opClass=SimdReduceAdd

[system.cpu.executeFuncUnits.funcUnits4.opClasses.opClasses32]
type=MinorOpClass
eventq_index=0
opClass=SimdReduceAlu

[system.cpu.executeFuncUnits.funcUnits4.opClasses.opClasses33]
type=MinorOpClass
eventq_index=0
opClass=SimdReduceCmp

[system.cpu.executeFuncUnits.funcUnits4.opClasses.opClasses34]
type=MinorOpClass
eventq_index=0
opClass=SimdFloatReduceAdd

[system.cpu.executeFuncUnits.funcUnits4.opClasses.opClasses35]
type=MinorOpClass
eventq_index=0
opClass=SimdFloatReduceCmp

[system.cpu.executeFuncUnits.funcUnits4.opClasses.opClasses36]
type=MinorOpClass
eventq_index=0
opClass=SimdAes

[system.cpu.executeFuncUnits.funcUnits4.opClasses.opClasses37]
type=MinorOpClass
eventq_index=0
opClass=SimdAesMix

[system.cpu.executeFuncUnits.funcUnits4.opClasses.opClasses38]
type=MinorOpClass
eventq_index=0
opClass=SimdSha1Hash

[system.cpu.executeFuncUnits.funcUnits4.opClasses.opClasses39]
type=MinorOpClass
eventq_index=0
opClass=SimdSha1Hash2

[system.cpu.executeFuncUnits.funcUnits4.opClasses.opClasses40]
type=MinorOpClass
eventq_index=0
opClass=SimdSha256Hash

[system.cpu.executeFuncUnits.funcUnits4.opClasses.opClasses41]
type=MinorOpClass
eventq_index=0
opClass=SimdSha256Hash2

[system.cpu.executeFuncUnits.funcUnits4.opClasses.opClasses42]
type=MinorOpClass
eventq_index=0
opClass=SimdShaSigma2

[system.cpu.executeFuncUnits.funcUnits4.opClasses.opClasses43]
type=MinorOpClass
eventq_index=0
opClass=SimdShaSigma3

[system.cpu.executeFuncUnits.funcUnits4.opClasses.opClasses44]
type=MinorOpClass
eventq_index=0
opClass=Matrix

[system.cpu.executeFuncUnits.funcUnits4.opClasses.opClasses45]
type=MinorOpClass
eventq_index=0
opClass=MatrixMov

[system.cpu.executeFuncUnits.funcUnits4.opClasses.opClasses46]
type=MinorOpClass
eventq_index=0
opClass=MatrixOP

[system.cpu.executeFuncUnits.funcUnits4.opClasses.opClasses47]
type=MinorOpClass
eventq_index=0
opClass=SimdExt

[system.cpu.executeFuncUnits.funcUnits4.opClasses.opClasses48]
type=MinorOpClass
eventq_index=0
opClass=SimdFloatExt

[system.cpu.executeFuncUnits.funcUnits4.opClasses.opClasses49]
type=MinorOpClass
eventq_index=0
opClass=SimdFloatCvt

[system.cpu.executeFuncUnits.funcUnits4.opClasses.opClasses50]
type=MinorOpClass
eventq_index=0
opClass=SimdConfig

[system.cpu.executeFuncUnits.funcUnits4.timings]
type=MinorFUTiming
children=opClasses
description=FloatSimd
eventq_index=0
extraAssumedLat=0
extraCommitLat=0
extraCommitLatExpr=Null
mask=0
match=0
opClasses=system.cpu.executeFuncUnits.funcUnits4.timings.opClasses
srcRegsRelativeLats=2
suppress=false

[system.cpu.executeFuncUnits.funcUnits4.timings.opClasses]
type=MinorOpClassSet
eventq_index=0
opClasses=

[system.cpu.executeFuncUnits.funcUnits5]
type=MinorFU
children=opClasses timings
cantForwardFromFUIndices=
eventq_index=0
issueLat=1
opClasses=system.cpu.executeFuncUnits.funcUnits5.opClasses
opLat=3
timings=system.cpu.executeFuncUnits.funcUnits5.timings

[system.cpu.executeFuncUnits.funcUnits5.opClasses]
type=MinorOpClassSet
children=opClasses
eventq_index=0
opClasses=system.cpu.executeFuncUnits.funcUnits5.opClasses.opClasses

[system.cpu.executeFuncUnits.funcUnits5.opClasses.opClasses]
type=MinorOpClass
eventq_index=0
opClass=SimdPredAlu

[system.cpu.executeFuncUnits.funcUnits5.timings]
type=MinorFUTiming
children=opClasses
description=Pred
eventq_index=0
extraAssumedLat=0
extraCommitLat=0
extraCommitLatExpr=Null
mask=0
match=0
opClasses=system.cpu.executeFuncUnits.funcUnits5.timings.opClasses
srcRegsRelativeLats=2
suppress=false

[system.cpu.executeFuncUnits.funcUnits5.timings.opClasses]
type=MinorOpClassSet
eventq_index=0
opClasses=

[system.cpu.executeFuncUnits.funcUnits6]
type=MinorFU
children=opClasses timings
cantForwardFromFUIndices=
eventq_index=0
issueLat=1
opClasses=system.cpu.executeFuncUnits.funcUnits6.opClasses
opLat=1
timings=system.cpu.executeFuncUnits.funcUnits6.timings

[system.cpu.executeFuncUnits.funcUnits6.opClasses]
type=MinorOpClassSet
children=opClasses00 opClasses01 opClasses02 opClasses03 opClasses04 opClasses05 opClasses06 opClasses07 opClasses08 opClasses09 opClasses10 opClasses11 opClasses12 opClasses13 opClasses14
eventq_index=0
opClasses=system.cpu.executeFuncUnits.funcUnits6.opClasses.opClasses00 system.cpu.executeFuncUnits.funcUnits6.opClasses.opClasses01 system.cpu.executeFuncUnits.funcUnits6.opClasses.opClasses02 system.cpu.executeFuncUnits.funcUnits6.opClasses.opClasses03 system.cpu.executeFuncUnits.funcUnits6.opClasses.opClasses04 system.cpu.executeFuncUnits.funcUnits6.opClasses.opClasses05 system.cpu.executeFuncUnits.funcUnits6.opClasses.opClasses06 system.cpu.executeFuncUnits.funcUnits6.opClasses.opClasses07 system.cpu.executeFuncUnits.funcUnits6.opClasses.opClasses08 system.cpu.executeFuncUnits.funcUnits6.opClasses.opClasses09 system.cpu.executeFuncUnits.funcUnits6.opClasses.opClasses10 system.cpu.executeFuncUnits.funcUnits6.opClasses.opClasses11 system.cpu.executeFuncUnits.funcUnits6.opClasses.opClasses12 system.cpu.executeFuncUnits.funcUnits6.opClasses.opClasses13 system.cpu.executeFuncUnits.funcUnits6.opClasses.opClasses14

[system.cpu.executeFuncUnits.funcUnits6.opClasses.opClasses00]
type=MinorOpClass
eventq_index=0
opClass=MemRead

[system.cpu.executeFuncUnits.funcUnits6.opClasses.opClasses01]
type=MinorOpClass
eventq_index=0
opClass=MemWrite

[system.cpu.executeFuncUnits.funcUnits6.opClasses.opClasses02]
type=MinorOpClass
eventq_index=0
opClass=FloatMemRead

[system.cpu.executeFuncUnits.funcUnits6.opClasses.opClasses03]
type=MinorOpClass
eventq_index=0
opClass=FloatMemWrite

[system.cpu.executeFuncUnits.funcUnits6.opClasses.opClasses04]
type=MinorOpClass
eventq_index=0
opClass=SimdUnitStrideLoad

[system.cpu.executeFuncUnits.funcUnits6.opClasses.opClasses05]
type=MinorOpClass
eventq_index=0
opClass=SimdUnitStrideStore

[system.cpu.executeFuncUnits.funcUnits6.opClasses.opClasses06]
type=MinorOpClass
eventq_index=0
opClass=SimdUnitStrideMaskLoad

[system.cpu.executeFuncUnits.funcUnits6.opClasses.opClasses07]
type=MinorOpClass
eventq_index=0
opClass=SimdUnitStrideMaskStore

[system.cpu.executeFuncUnits.funcUnits6.opClasses.opClasses08]
type=MinorOpClass
eventq_index=0
opClass=SimdStridedLoad

[system.cpu.executeFuncUnits.funcUnits6.opClasses.opClasses09]
type=MinorOpClass
eventq_index=0
opClass=SimdStridedStore

[system.cpu.executeFuncUnits.funcUnits6.opClasses.opClasses10]
type=MinorOpClass
eventq_index=0
opClass=SimdIndexedLoad

[system.cpu.executeFuncUnits.funcUnits6.opClasses.opClasses11]
type=MinorOpClass
eventq_index=0
opClass=SimdIndexedStore

[system.cpu.executeFuncUnits.funcUnits6.opClasses.opClasses12]
type=MinorOpClass
eventq_index=0
opClass=SimdUnitStrideFaultOnlyFirstLoad

[system.cpu.executeFuncUnits.funcUnits6.opClasses.opClasses13]
type=MinorOpClass
eventq_index=0
opClass=SimdWholeRegisterLoad

[system.cpu.executeFuncUnits.funcUnits6.opClasses.opClasses14]
type=MinorOpClass
eventq_index=0
opClass=SimdWholeRegisterStore

[system.cpu.executeFuncUnits.funcUnits6.timings]
type=MinorFUTiming
children=opClasses
description=Mem
eventq_index=0
extraAssumedLat=2
extraCommitLat=0
extraCommitLatExpr=Null
mask=0
match=0
opClasses=system.cpu.executeFuncUnits.funcUnits6.timings.opClasses
srcRegsRelativeLats=1
suppress=false

[system.cpu.executeFuncUnits.funcUnits6.timings.opClasses]
type=MinorOpClassSet
eventq_index=0
opClasses=

[system.cpu.executeFuncUnits.funcUnits7]
type=MinorFU
children=opClasses
cantForwardFromFUIndices=
eventq_index=0
issueLat=1
opClasses=system.cpu.executeFuncUnits.funcUnits7.opClasses
opLat=1
timings=

[system.cpu.executeFuncUnits.funcUnits7.opClasses]
type=MinorOpClassSet
children=opClasses0 opClasses1
eventq_index=0
opClasses=system.cpu.executeFuncUnits.funcUnits7.opClasses.opClasses0 system.cpu.executeFuncUnits.funcUnits7.opClasses.opClasses1

[system.cpu.executeFuncUnits.funcUnits7.opClasses.opClasses0]
type=MinorOpClass
eventq_index=0
opClass=IprAccess

[system.cpu.executeFuncUnits.funcUnits7.opClasses.opClasses1]
type=MinorOpClass
eventq_index=0
opClass=InstPrefetch

[system.cpu.interrupts]
type=ArmInterrupts
eventq_index=0

[system.cpu.isa]
type=ArmISA
children=release_se
decoderFlavor=Generic
eventq_index=0
fpsid=1090793632
id_aa64afr0_el1=0
id_aa64afr1_el1=0
id_aa64dfr0_el1=15790086
id_aa64dfr1_el1=0
id_aa64isar0_el1=268435456
id_aa64isar1_el1=16846864
id_aa64mmfr0_el1=15728642
id_aa64mmfr1_el1=1052704
id_aa64mmfr2_el1=65552
id_isar0=34607377
id_isar1=34677009
id_isar2=555950401
id_isar3=17899825
id_isar4=268501314
id_isar5=285212672
id_isar6=1
id_mmfr0=270536963
id_mmfr1=0
id_mmfr2=19070976
id_mmfr3=34611729
id_mmfr4=0
impdef_nop=false
midr=0
mpamidr_el1=3746995439730032896
pmu=Null
release_se=system.cpu.isa.release_se
sme_vl_se=1
sve_vl_se=1
system=system

[system.cpu.isa.release_se]
type=ArmRelease
eventq_index=0
extensions=FEAT_AES FEAT_PMULL FEAT_SHA1 FEAT_SHA256 FEAT_CRC32 FEAT_LSE FEAT_RDM FEAT_F32MM FEAT_F64MM FEAT_SVE FEAT_I8MM FEAT_DOTPROD FEAT_FCMA FEAT_JSCVT FEAT_PAuth FEAT_FLAGM FEAT_FLAGM2 FEAT_SME TME

[system.cpu.mmu]
type=ArmMMU
children=dtb dtb_walker itb itb_walker l2_shared stage2_dtb stage2_dtb_walker stage2_itb stage2_itb_walker
dtb=system.cpu.mmu.dtb
dtb_walker=system.cpu.mmu.dtb_walker
eventq_index=0
itb=system.cpu.mmu.itb
itb_walker=system.cpu.mmu.itb_walker
release_se=system.cpu.isa.release_se
stage2_dtb=system.cpu.mmu.stage2_dtb
stage2_dtb_walker=system.cpu.mmu.stage2_dtb_walker
stage2_itb=system.cpu.mmu.stage2_itb
stage2_itb_walker=system.cpu.mmu.stage2_itb_walker
sys=system

[system.cpu.mmu.dtb]
type=ArmTLB
entry_type=data
eventq_index=0
is_stage2=false
next_level=system.cpu.mmu.l2_shared
partial_levels=
size=64
sys=system

[system.cpu.mmu.dtb_walker]
type=ArmTableWalker
children=power_state
clk_domain=system.clk_domain
eventq_index=0
is_stage2=false
num_squash_per_cycle=2
power_model=
power_state=system.cpu.mmu.dtb_walker.power_state
sys=system

[system.cpu.mmu.dtb_walker.power_state]
type=PowerState
clk_gate_bins=20
clk_gate_max=1000000000000
clk_gate_min=1000
default_state=UNDEFINED
eventq_index=0
leaders=
possible_states=

[system.cpu.mmu.itb]
type=ArmTLB
entry_type=instruction
eventq_index=0
is_stage2=false
next_level=system.cpu.mmu.l2_shared
partial_levels=
size=64
sys=system

[system.cpu.mmu.itb_walker]
type=ArmTableWalker
children=power_state
clk_domain=system.clk_domain
eventq_index=0
is_stage2=false
num_squash_per_cycle=2
power_model=
power_state=system.cpu.mmu.itb_walker.power_state
sys=system

[system.cpu.mmu.itb_walker.power_state]
type=PowerState
clk_gate_bins=20
clk_gate_max=1000000000000
clk_gate_min=1000
default_state=UNDEFINED
eventq_index=0
leaders=
possible_states=

[system.cpu.mmu.l2_shared]
type=ArmTLB
entry_type=unified
eventq_index=0
is_stage2=false
next_level=Null
partial_levels=L2
size=1280
sys=system

[system.cpu.mmu.stage2_dtb]
type=ArmTLB
entry_type=data
eventq_index=0
is_stage2=true
next_level=Null
partial_levels=
size=32
sys=system

[system.cpu.mmu.stage2_dtb_walker]
type=ArmTableWalker
children=power_state
clk_domain=system.clk_domain
eventq_index=0
is_stage2=true
num_squash_per_cycle=2
power_model=
power_state=system.cpu.mmu.stage2_dtb_walker.power_state
sys=system

[system.cpu.mmu.stage2_dtb_walker.power_state]
type=PowerState
clk_gate_bins=20
clk_gate_max=1000000000000
clk_gate_min=1000
default_state=UNDEFINED
eventq_index=0
leaders=
possible_states=

[system.cpu.mmu.stage2_itb]
type=ArmTLB
entry_type=instruction
eventq_index=0
is_stage2=true
next_level=Null
partial_levels=
size=32
sys=system

[system.cpu.mmu.stage2_itb_walker]
type=ArmTableWalker
children=power_state
clk_domain=system.clk_domain
eventq_index=0
is_stage2=true
num_squash_per_cycle=2
power_model=
power_state=system.cpu.mmu.stage2_itb_walker.power_state
sys=system

[system.cpu.mmu.stage2_itb_walker.power_state]
type=PowerState
clk_gate_bins=20
clk_gate_max=1000000000000
clk_gate_min=1000
default_state=UNDEFINED
eventq_index=0
leaders=
possible_states=

[system.cpu.power_state]
type=PowerState
clk_gate_bins=20
clk_gate_max=1000000000000
clk_gate_min=1000
default_state=UNDEFINED
eventq_index=0
leaders=
possible_states=ON CLK_GATED OFF

[system.cpu.tracer]
type=ExeTracer
children=disassembler
disassembler=system.cpu.tracer.disassembler
eventq_index=0

[system.cpu.tracer.disassembler]
type=InstDisassembler
eventq_index=0

[system.cpu.workload]
type=Process
cmd=tests/labexe/gemm
cwd=/gem5
drivers=
egid=100
env=
errout=cerr
euid=100
eventq_index=0
executable=tests/labexe/gemm
gid=100
input=cin
kvmInSE=false
maxStackSize=67108864
output=cout
pgid=100
pid=100
ppid=0
release=5.1.0
simpoint=0
system=system
uid=100
useArchPT=false

[system.dvfs_handler]
type=DVFSHandler
domains=
enable=false
eventq_index=0
sys_clk_domain=system.clk_domain
transition_latency=100000000

[system.mem_ctrl]
type=MemCtrl
children=dram power_state
clk_domain=system.clk_domain
command_window=10000
disable_sanity_check=false
dram=system.mem_ctrl.dram
eventq_index=0
mem_sched_policy=frfcfs
min_reads_per_switch=16
min_writes_per_switch=16
power_model=
power_state=system.mem_ctrl.power_state
qos_policy=Null
qos_priorities=1
qos_priority_escalation=false
qos_q_policy=fifo
qos_requestors=               
qos_syncro_scheduler=false
qos_turnaround_policy=Null
static_backend_latency=10000
static_frontend_latency=10000
system=system
write_high_thresh_perc=85
write_low_thresh_perc=50
port=system.membus.mem_side_ports[0]

[system.mem_ctrl.dram]
type=DRAMInterface
children=power_state
IDD0=0.055
IDD02=0.0
IDD2N=0.032
IDD2N2=0.0
IDD2P0=0.0
IDD2P02=0.0
IDD2P1=0.032
IDD2P12=0.0
IDD3N=0.038
IDD3N2=0.0
IDD3P0=0.0
IDD3P02=0.0
IDD3P1=0.038
IDD3P12=0.0
IDD4R=0.157
IDD4R2=0.0
IDD4W=0.125
IDD4W2=0.0
IDD5=0.23500000000000001
IDD52=0.0
IDD6=0.02
IDD62=0.0
VDD=1.5
VDD2=0.0
activation_limit=4
addr_mapping=RoRaBaCoCh
bank_groups_per_rank=0
banks_per_rank=8
beats_per_clock=2
burst_length=8
clk_domain=system.clk_domain
collect_stats=true
conf_table_reported=true
data_clock_sync=false
device_bus_width=8
device_rowbuffer_size=1024
device_size=536870912
devices_per_rank=8
dll=true
enable_dram_powerdown=false
eventq_index=0
image_file=
in_addr_map=true
kvm_map=true
max_accesses_per_row=16
null=false
page_policy=open_adaptive
power_model=
power_state=system.mem_ctrl.dram.power_state
range=0:2147483648
ranks_per_channel=2
read_buffer_size=32
tAAD=1250
tBURST=5000
tBURST_MAX=5000
tBURST_MIN=5000
tCCD_L=0
tCCD_L_WR=0