[root]
type=Root
children=system
eventq_index=0
full_system=false
sim_quantum=0
time_sync_enable=false
time_sync_period=100000000000
time_sync_spin_threshold=100000000

[system]
type=System
children=clk_domain cpu dvfs_handler mem_ctrl membus workload
auto_unlink_shared_backstore=false
cache_line_size=64
eventq_index=0
exit_on_work_items=false
init_param=0
m5ops_base=0
mem_mode=timing
mem_ranges=0:2147483648
memories=system.mem_ctrl.dram
mmap_using_noreserve=false
multi_thread=false
num_work_ids=16
readfile=
redirect_paths=
shadow_rom_ranges=
shared_backstore=
symbolfile=
thermal_components=
thermal_model=Null
work_begin_ckpt_count=0
work_begin_cpu_id_exit=-1
work_begin_exit_count=0
work_cpus_ckpt_count=0
work_end_ckpt_count=0
work_end_exit_count=0
work_item_id=-1
workload=system.workload
system_port=system.membus.cpu_side_ports[2]

[system.clk_domain]
type=SrcClockDomain
children=voltage_domain
clock=500
domain_id=-1
eventq_index=0
init_perf_level=0
voltage_domain=system.clk_domain.voltage_domain

[system.clk_domain.voltage_domain]
type=VoltageDomain
eventq_index=0
voltage=1.0

[system.cpu]
type=BaseTimingSimpleCPU
children=decoder interrupts isa mmu power_state tracer workload
branchPred=Null
checker=Null
clk_domain=system.clk_domain
cpu_id=-1
decoder=system.cpu.decoder
do_checkpoint_insts=true
do_statistics_insts=true
eventq_index=0
function_trace=false
function_trace_start=0
interrupts=system.cpu.interrupts
isa=system.cpu.isa
max_insts_all_threads=0
max_insts_any_thread=500000000
mmu=system.cpu.mmu
numThreads=1
power_gating_on_idle=false
power_model=
power_state=system.cpu.power_state
progress_interval=0
pwr_gating_latency=300
simpoint_start_insts=
socket_id=0
switched_out=false
syscallRetryLatency=10000
system=system
tracer=system.cpu.tracer
workload=system.cpu.workload
dcache_port=system.membus.cpu_side_ports[1]
icache_port=system.membus.cpu_side_ports[0]

[system.cpu.decoder]
type=ArmDecoder
dvm_enabled=false
eventq_index=0
isa=system.cpu.isa

[system.cpu.interrupts]
type=ArmInterrupts
eventq_index=0

[system.cpu.isa]
type=ArmISA
children=release_se
decoderFlavor=Generic
eventq_index=0
fpsid=1090793632
id_aa64afr0_el1=0
id_aa64afr1_el1=0
id_aa64dfr0_el1=15790086
id_aa64dfr1_el1=0
id_aa64isar0_el1=268435456
id_aa64isar1_el1=16846864
id_aa64mmfr0_el1=15728642
id_aa64mmfr1_el1=1052704
id_aa64mmfr2_el1=65552
id_isar0=34607377
id_isar1=34677009
id_isar2=555950401
id_isar3=17899825
id_isar4=268501314
id_isar5=285212672
id_isar6=1
id_mmfr0=270536963
id_mmfr1=0
id_mmfr2=19070976
id_mmfr3=34611729
id_mmfr4=0
impdef_nop=false
midr=0
mpamidr_el1=3746995439730032896
pmu=Null
release_se=system.cpu.isa.release_se
sme_vl_se=1
sve_vl_se=1
system=system

[system.cpu.isa.release_se]
type=ArmRelease
eventq_index=0
extensions=FEAT_AES FEAT_PMULL FEAT_SHA1 FEAT_SHA256 FEAT_CRC32 FEAT_LSE FEAT_RDM FEAT_F32MM FEAT_F64MM FEAT_SVE FEAT_I8MM FEAT_DOTPROD FEAT_FCMA FEAT_JSCVT FEAT_PAuth FEAT_FLAGM FEAT_FLAGM2 FEAT_SME TME

[system.cpu.mmu]
type=ArmMMU
children=dtb dtb_walker itb itb_walker l2_shared stage2_dtb stage2_dtb_walker stage2_itb stage2_itb_walker
dtb=system.cpu.mmu.dtb
dtb_walker=system.cpu.mmu.dtb_walker
eventq_index=0
itb=system.cpu.mmu.itb
itb_walker=system.cpu.mmu.itb_walker
release_se=system.cpu.isa.release_se
stage2_dtb=system.cpu.mmu.stage2_dtb
stage2_dtb_walker=system.cpu.mmu.stage2_dtb_walker
stage2_itb=system.cpu.mmu.stage2_itb
stage2_itb_walker=system.cpu.mmu.stage2_itb_walker
sys=system

[system.cpu.mmu.dtb]
type=ArmTLB
entry_type=data
eventq_index=0
is_stage2=false
next_level=system.cpu.mmu.l2_shared
partial_levels=
size=64
sys=system

[system.cpu.mmu.dtb_walker]
type=ArmTableWalker
children=power_state
clk_domain=system.clk_domain
eventq_index=0
is_stage2=false
num_squash_per_cycle=2
power_model=
power_state=system.cpu.mmu.dtb_walker.power_state
sys=system

[system.cpu.mmu.dtb_walker.power_state]
type=PowerState
clk_gate_bins=20
clk_gate_max=1000000000000
clk_gate_min=1000
default_state=UNDEFINED
eventq_index=0
leaders=
possible_states=

[system.cpu.mmu.itb]
type=ArmTLB
entry_type=instruction
eventq_index=0
is_stage2=false
next_level=system.cpu.mmu.l2_shared
partial_levels=
size=64
sys=system

[system.cpu.mmu.itb_walker]
type=ArmTableWalker
children=power_state
clk_domain=system.clk_domain
eventq_index=0
is_stage2=false
num_squash_per_cycle=2
power_model=
power_state=system.cpu.mmu.itb_walker.power_state
sys=system

[system.cpu.mmu.itb_walker.power_state]
type=PowerState
clk_gate_bins=20
clk_gate_max=1000000000000
clk_gate_min=1000
default_state=UNDEFINED
eventq_index=0
leaders=
possible_states=

[system.cpu.mmu.l2_shared]
type=ArmTLB
entry_type=unified
eventq_index=0
is_stage2=false
next_level=Null
partial_levels=L2
size=1280
sys=system

[system.cpu.mmu.stage2_dtb]
type=ArmTLB
entry_type=data
eventq_index=0
is_stage2=true
next_level=Null
partial_levels=
size=32
sys=system

[system.cpu.mmu.stage2_dtb_walker]
type=ArmTableWalker
children=power_state
clk_domain=system.clk_domain
eventq_index=0
is_stage2=true
num_squash_per_cycle=2
power_model=
power_state=system.cpu.mmu.stage2_dtb_walker.power_state
sys=system

[system.cpu.mmu.stage2_dtb_walker.power_state]
type=PowerState
clk_gate_bins=20
clk_gate_max=1000000000000
clk_gate_min=1000
default_state=UNDEFINED
eventq_index=0
leaders=
possible_states=

[system.cpu.mmu.stage2_itb]
type=ArmTLB
entry_type=instruction
eventq_index=0
is_stage2=true
next_level=Null
partial_levels=
size=32
sys=system

[system.cpu.mmu.stage2_itb_walker]
type=ArmTableWalker
children=power_state
clk_domain=system.clk_domain
eventq_index=0
is_stage2=true
num_squash_per_cycle=2
power_model=
power_state=system.cpu.mmu.stage2_itb_walker.power_state
sys=system

[system.cpu.mmu.stage2_itb_walker.power_state]
type=PowerState
clk_gate_bins=20
clk_gate_max=1000000000000
clk_gate_min=1000
default_state=UNDEFINED
eventq_index=0
leaders=
possible_states=

[system.cpu.power_state]
type=PowerState
clk_gate_bins=20
clk_gate_max=1000000000000
clk_gate_min=1000
default_state=UNDEFINED
eventq_index=0
leaders=
possible_states=ON CLK_GATED OFF

[system.cpu.tracer]
type=ExeTracer
children=disassembler
disassembler=system.cpu.tracer.disassembler
eventq_index=0

[system.cpu.tracer.disassembler]
type=InstDisassembler
eventq_index=0

[system.cpu.workload]
type=Process
cmd=tests/labexe/gemm
cwd=/gem5
drivers=
egid=100
env=
errout=cerr
euid=100
eventq_index=0
executable=tests/labexe/gemm
gid=100
input=cin
kvmInSE=false
maxStackSize=67108864
output=cout
pgid=100
pid=100
ppid=0
release=5.1.0
simpoint=0
system=system
uid=100
useArchPT=false

[system.dvfs_handler]
type=DVFSHandler
domains=
enable=false
eventq_index=0
sys_clk_domain=system.clk_domain
transition_latency=100000000

[system.mem_ctrl]
type=MemCtrl
children=dram power_state
clk_domain=system.clk_domain
command_window=10000
disable_sanity_check=false
dram=system.mem_ctrl.dram
eventq_index=0
mem_sched_policy=frfcfs
min_reads_per_switch=16
min_writes_per_switch=16
power_model=
power_state=system.mem_ctrl.power_state
qos_policy=Null
qos_priorities=1
qos_priority_escalation=false
qos_q_policy=fifo
qos_requestors=               
qos_syncro_scheduler=false
qos_turnaround_policy=Null
static_backend_latency=10000
static_frontend_latency=10000
system=system
write_high_thresh_perc=85
write_low_thresh_perc=50
port=system.membus.mem_side_ports[0]

[system.mem_ctrl.dram]
type=DRAMInterface
children=power_state
IDD0=0.048
IDD02=0.003
IDD2N=0.034
IDD2N2=0.0
IDD2P0=0.0
IDD2P02=0.0
IDD2P1=0.025
IDD2P12=0.0
IDD3N=0.043000000000000003
IDD3N2=0.003
IDD3P0=0.0
IDD3P02=0.0
IDD3P1=0.037
IDD3P12=0.0
IDD4R=0.135
IDD4R2=0.0
IDD4W=0.123
IDD4W2=0.0
IDD5=0.25
IDD52=0.0
IDD6=0.03
IDD62=0.0
VDD=1.2
VDD2=2.5
activation_limit=4
addr_mapping=RoRaBaCoCh
bank_groups_per_rank=4
banks_per_rank=16
beats_per_clock=2
burst_length=8
clk_domain=system.clk_domain
collect_stats=true
conf_table_reported=true
data_clock_sync=false
device_bus_width=8
device_rowbuffer_size=1024
device_size=1073741824
devices_per_rank=8
dll=true
enable_dram_powerdown=false
eventq_index=0
image_file=
in_addr_map=true
kvm_map=true
max_accesses_per_row=16
null=false
page_policy=open_adaptive
power_model=
power_state=system.mem_ctrl.dram.power_state
range=0:2147483648
ranks_per_channel=2
read_buffer_size=64
tAAD=833
tBURST=3332
tBURST_MAX=3332
tBURST_MIN=3332
tCCD_L=5000
tCCD_L_WR=5000
tCK=833
tCL=14160
tCS=1666
tCWL=14160
tPPD=0
tRAS=32000
tRCD=14160
tRCD_WR=14160
tREFI=7800000
tRFC=350000
tRP=14160
tRRD=3332
tRRD_L=4900
tRTP=7500
tRTW=1666
tWR=15000
tWTR=5000
tWTR_L=5000
tXAW=21000
tXP=6000
tXPDLL=0
tXS=340000
tXSDLL=0
two_cycle_activate=false
write_buffer_size=128
writeable=true

[system.mem_ctrl.dram.power_state]
type=PowerState
clk_gate_bins=20
clk_gate_max=1000000000000
clk_gate_min=1000
default_state=UNDEFINED
eventq_index=0
leaders=
possible_states=

[system.mem_ctrl.power_state]
type=PowerState
clk_gate_bins=20
clk_gate_max=1000000000000
clk_gate_min=1000
default_state=UNDEFINED
eventq_index=0
leaders=
possible_states=

[system.membus]
type=CoherentXBar
children=power_state snoop_filter
clk_domain=system.clk_domain
eventq_index=0
forward_latency=4
frontend_latency=3
header_latency=1
max_outstanding_snoops=512
max_routing_table_size=512
point_of_coherency=true
point_of_unification=true
power_model=
power_state=system.membus.power_state
response_latency=2
snoop_filter=system.membus.snoop_filter
snoop_response_latency=4
system=system
use_default_range=false
width=16
cpu_side_ports=system.cpu.icache_port system.cpu.dcache_port system.system_port
mem_side_ports=system.mem_ctrl.port

[system.membus.power_state]
type=PowerState
clk_gate_bins=20
clk_gate_max=1000000000000
clk_gate_min=1000
default_state=UNDEFINED
eventq_index=0
leaders=
possible_states=

[system.membus.snoop_filter]
type=SnoopFilter
eventq_index=0
lookup_latency=1
max_capacity=8388608
system=system

[system.workload]
type=ArmEmuLinux
eventq_index=0
remote_gdb_port=#7000
wait_for_remote_gdb=false

